<?xml version="1.0" encoding="UTF-8"?>
<nodes>
    <node id="begin" x="0.0" y="0.0"/>
    <node id="end" x="3000.0" y="0.0"/>
</nodes>
