<?xml version="1.0" encoding="UTF-8"?>
<configuration>
    <input>
        <net-file value="highway.net.xml"/>
        <route-files value="highway.rou.xml"/>
        <additional-files value="highway.add.xml"/>
    </input>
    <time>
        <begin value="0"/>
        <end value="120"/>
        <step-length value="0.01"/>
    </time>
</configuration>
