<?xml version="1.0" encoding="UTF-8"?>
<edges>
    <edge id="highway" from="begin" to="end" numLanes="1"
          speed="33.33" length="3000.0"/>
</edges>
